LTspice 24.0.12 for Windows
Circuit: * C:\Users\Neema\Desktop\Neema Folder\Summer Projects\Arduino-Projects\Sensing Diagram.asc
Start Time: Fri Jul  3 22:57:18 2026
solver = Normal
Maximum thread count: 22
tnom = 27
temp = 27
method = modified trap
.OP point found by inspection.
Total elapsed time: 0.122 seconds.

